CN2CCN(Cc1ccc(C(N)=O)cc1)CC2
     RDKit          3D

 36 37  0  0  0  0  0  0  0  0999 V2000
    3.5246   -0.5431   -0.5659 C   0  0  0  0  0  0  0  0  0  0  0  0
    3.8434    0.0709    0.6513 C   0  0  0  0  0  0  0  0  0  0  0  0
    2.8921    0.1069    1.6764 C   0  0  0  0  0  0  0  0  0  0  0  0
    1.6248   -0.4458    1.4787 C   0  0  0  0  0  0  0  0  0  0  0  0
    1.2916   -1.0484    0.2565 C   0  0  0  0  0  0  0  0  0  0  0  0
    2.2552   -1.0973   -0.7610 C   0  0  0  0  0  0  0  0  0  0  0  0
    5.1789    0.6737    0.9066 C   0  0  0  0  0  0  0  0  0  0  0  0
    5.6021    0.8514    2.0417 O   0  0  0  0  0  0  0  0  0  0  0  0
    5.9117    1.0659   -0.1802 N   0  0  0  0  0  0  0  0  0  0  0  0
   -0.0800   -1.6602    0.0528 C   0  0  0  0  0  0  0  0  0  0  0  0
   -1.1765   -0.6965    0.2324 N   0  0  0  0  0  0  0  0  0  0  0  0
   -1.2069    0.3052   -0.8552 C   0  0  0  0  0  0  0  0  0  0  0  0
   -2.4055    1.2739   -0.7270 C   0  0  0  0  0  0  0  0  0  0  0  0
   -3.6966    0.5602   -0.6918 N   0  0  0  0  0  0  0  0  0  0  0  0
   -3.6698   -0.4324    0.3991 C   0  0  0  0  0  0  0  0  0  0  0  0
   -2.4740   -1.4029    0.2696 C   0  0  0  0  0  0  0  0  0  0  0  0
   -4.8010    1.4988   -0.5100 C   0  0  0  0  0  0  0  0  0  0  0  0
    4.2579   -0.6236   -1.3626 H   0  0  0  0  0  0  0  0  0  0  0  0
    3.1333    0.5693    2.6316 H   0  0  0  0  0  0  0  0  0  0  0  0
    0.8897   -0.4019    2.2804 H   0  0  0  0  0  0  0  0  0  0  0  0
    2.0250   -1.5740   -1.7114 H   0  0  0  0  0  0  0  0  0  0  0  0
    6.7492    1.5950    0.0284 H   0  0  0  0  0  0  0  0  0  0  0  0
    5.4846    1.2152   -1.0826 H   0  0  0  0  0  0  0  0  0  0  0  0
   -0.1419   -2.1404   -0.9329 H   0  0  0  0  0  0  0  0  0  0  0  0
   -0.1700   -2.4676    0.7922 H   0  0  0  0  0  0  0  0  0  0  0  0
   -0.2920    0.9085   -0.8377 H   0  0  0  0  0  0  0  0  0  0  0  0
   -1.2530   -0.1912   -1.8342 H   0  0  0  0  0  0  0  0  0  0  0  0
   -2.2761    1.8851    0.1767 H   0  0  0  0  0  0  0  0  0  0  0  0
   -2.3888    1.9545   -1.5869 H   0  0  0  0  0  0  0  0  0  0  0  0
   -4.5940   -1.0226    0.3783 H   0  0  0  0  0  0  0  0  0  0  0  0
   -3.6220    0.0668    1.3765 H   0  0  0  0  0  0  0  0  0  0  0  0
   -2.6055   -2.0146   -0.6335 H   0  0  0  0  0  0  0  0  0  0  0  0
   -2.4943   -2.0825    1.1302 H   0  0  0  0  0  0  0  0  0  0  0  0
   -5.7595    0.9681   -0.5139 H   0  0  0  0  0  0  0  0  0  0  0  0
   -4.7219    2.0597    0.4283 H   0  0  0  0  0  0  0  0  0  0  0  0
   -4.8347    2.2158   -1.3377 H   0  0  0  0  0  0  0  0  0  0  0  0
  1  2  2  0
  2  3  1  0
  3  4  2  0
  4  5  1  0
  5  6  2  0
  6  1  1  0
  2  7  1  0
  7  8  2  0
  7  9  1  0
  5 10  1  0
 10 11  1  0
 12 13  1  0
 13 14  1  0
 14 15  1  0
 15 16  1  0
 11 16  1  0
 11 12  1  0
 14 17  1  0
  1 18  1  0
  3 19  1  0
  4 20  1  0
  6 21  1  0
  9 22  1  0
  9 23  1  0
 10 24  1  0
 10 25  1  0
 12 26  1  0
 12 27  1  0
 13 28  1  0
 13 29  1  0
 15 30  1  0
 15 31  1  0
 16 32  1  0
 16 33  1  0
 17 34  1  0
 17 35  1  0
 17 36  1  0
M  END
$$$$
